48
Lattice="9.71608884 0.0 0.0 4.85804442 8.41437584 0.0 0.0 0.0 41.64905444" Properties=species:S:1:pos:R:3:forces:R:3 energy=-9819.76718303864 free_energy=-9819.76718303864 pbc="T T T"
Li      -0.00000001       0.00000947      20.26463260       0.00000000       0.00000284      -0.00013864
Li       2.42901447       1.40259154      16.49649406       0.00000037       0.00001707      -0.00031496
Li       4.85804441       2.80485809      18.29233066       0.00000000       0.00001129       0.00026823
Li       0.00000001       0.00013799      17.19399367      -0.00000000       0.00001448       0.00014097
Li       2.42902062       1.40243047      19.36403207       0.00000011       0.00000738      -0.00005151
Li       4.85804450       2.80508842      15.28682373      -0.00000000       0.00001903      -0.00010130
Li      -0.00000000      -0.00029477      26.36223325       0.00000000      -0.00001906       0.00010000
Li       2.42902177       1.40236368      22.28502046       0.00000012      -0.00000723       0.00005209
Li       4.85804441       2.80465680      24.45506338       0.00000000      -0.00001447      -0.00014107
Li      -0.00000001      -0.00006308      23.35672575      -0.00000000      -0.00001127      -0.00026835
Li       2.42902852       1.40220322      25.15255927      -0.00000064      -0.00001722       0.00031475
Li       4.85804442       2.80478552      21.38442514      -0.00000000      -0.00000283       0.00013826
Li       2.42902378       4.20719667      20.26462590      -0.00000034       0.00000302      -0.00013838
Li       4.85804439       5.60979228      16.49649287      -0.00000000       0.00001641      -0.00031501
Li       7.28706966       7.01204447      18.29233202      -0.00000042       0.00001153       0.00026832
Li       2.42902870       4.20732260      17.19398824      -0.00000017       0.00001457       0.00014174
Li       4.85804441       5.60962106      19.36403122      -0.00000000       0.00000717      -0.00005153
Li       7.28709688       7.01226060      15.28682159      -0.00000118       0.00001977      -0.00010064
Li       2.42899651       4.20690924      26.36223316       0.00000200      -0.00002020       0.00010057
Li       4.85804440       5.60955221      22.28501966       0.00000000      -0.00000745       0.00005207
Li       7.28706152       7.01184798      24.45506513       0.00000077      -0.00001493      -0.00014103
Li       2.42902126       4.20712556      23.35672240       0.00000009      -0.00001136      -0.00026844
Li       4.85804440       5.60937998      25.15255825      -0.00000000      -0.00001610       0.00031469
Li       7.28706795       7.01197289      21.38442752      -0.00000029      -0.00000266       0.00013875
Li       4.85804440       0.00001123      20.26462585      -0.00000000       0.00000244      -0.00013839
Li       7.28707435       1.40259152      16.49649421      -0.00000037       0.00001707      -0.00031495
Li       9.71608882       2.80486154      18.29233191       0.00000000       0.00001080       0.00026832
Li       4.85804439       0.00014565      17.19398821       0.00000000       0.00001428       0.00014176
Li       7.28706820       1.40243047      19.36403215      -0.00000012       0.00000738      -0.00005151
Li       9.71608874       2.80512357      15.28682146       0.00000000       0.00001766      -0.00010062
Li       4.85804440      -0.00032454      26.36223310      -0.00000000      -0.00001676       0.00010057
Li       7.28706705       1.40236368      22.28502051      -0.00000012      -0.00000723       0.00005209
Li       9.71608883       2.80465085      24.45506515      -0.00000000      -0.00001358      -0.00014104
Li       4.85804440      -0.00006413      23.35672237      -0.00000000      -0.00001117      -0.00026843
Li       7.28706030       1.40220321      25.15255931       0.00000064      -0.00001722       0.00031475
Li       9.71608882       2.80478713      21.38442746       0.00000000      -0.00000317       0.00013874
Li       7.28706503       4.20719668      20.26462590       0.00000035       0.00000302      -0.00013838
Li       9.71608884       5.60978354      16.49653686       0.00000000       0.00001683      -0.00031712
Li      12.14510799       7.01204448      18.29233203       0.00000042       0.00001153       0.00026831
Li       7.28706011       4.20732262      17.19398825       0.00000017       0.00001457       0.00014174
Li       9.71608883       5.60961916      19.36404963      -0.00000000       0.00000730      -0.00005332
Li      12.14508077       7.01226071      15.28682160       0.00000118       0.00001977      -0.00010065
Li       7.28709230       4.20690925      26.36223315      -0.00000200      -0.00002020       0.00010057
Li       9.71608883       5.60955176      22.28501392       0.00000000      -0.00000731       0.00005174
Li      12.14511613       7.01184798      24.45506513      -0.00000077      -0.00001492      -0.00014102
Li       7.28706756       4.20712556      23.35672239      -0.00000009      -0.00001136      -0.00026844
Li       9.71608883       5.60938719      25.15252601       0.00000000      -0.00001685       0.00031693
Li      12.14510971       7.01197290      21.38442752       0.00000029      -0.00000266       0.00013875
