36
Lattice="9.71608884 0.0 0.0 2.42902221 7.28706663 0.0 0.0 0.0 30.91641009" Properties=species:S:1:pos:R:3:forces:R:3 energy=-7364.3614368048 free_energy=-7364.3614368048 pbc="T T T"
Li       0.00751861      -0.55813925      20.29398963      -0.00000745       0.00035523       0.00028996
Li       2.42100422       4.04813752      11.20877353       0.00001388       0.00009020       0.00030224
Li       2.42260626       0.94576213      12.74075199      -0.00002108       0.00021780      -0.00036008
Li       4.85518539       4.84857556      13.22854346      -0.00008357      -0.00010605       0.00004037
Li       4.85656030       1.59483394      14.66018012      -0.00002975       0.00002463      -0.00017026
Li       2.42887517       5.81900664      15.59227623       0.00000745      -0.00005135       0.00011035
Li       2.43075282       2.27876061      16.81089752       0.00010785       0.00003953      -0.00011791
Li       4.86340904       6.41183524      18.19662131       0.00004835      -0.00022785       0.00018394
Li       4.86439514       3.43506686      19.29048733      -0.00003265      -0.00007505       0.00047331
Li       2.42366049       6.54294914      12.71978704      -0.00004878       0.00022860      -0.00018421
Li       2.42728942       3.38895879      14.10552227      -0.00010747      -0.00003988       0.00011626
Li       4.85819564       7.13578645      15.32413194      -0.00000835       0.00004974      -0.00011068
Li       4.85952880       4.07288921      16.25621986       0.00003049      -0.00002616       0.00017073
Li       4.86090034       0.81913600      17.68785695       0.00008359       0.00010543      -0.00004031
Li       2.43543706       4.72196133      18.17565522       0.00002140      -0.00021667       0.00035889
Li       2.43704490       1.61957130      19.70764377      -0.00001423      -0.00008904      -0.00030360
Li       4.85050891       6.22586420      10.62241473       0.00000894      -0.00035598      -0.00028857
Li       4.85168537       2.23262616      11.62590492       0.00003272       0.00007740      -0.00047154
Li       4.86561095      -0.55814016      20.29398630      -0.00001128       0.00035827       0.00028975
Li       7.27902769       4.04813598      11.20876730       0.00001568       0.00008958       0.00030301
Li       7.28065234       0.94575980      12.74074423      -0.00002012       0.00021762      -0.00036040
Li       9.71323402       4.84858588      13.22854799      -0.00008352      -0.00010716       0.00004039
Li       9.71460210       1.59483044      14.66018620      -0.00002967       0.00002508      -0.00017008
Li       7.28691939       5.81899804      15.59227903       0.00000816      -0.00005137       0.00011054
Li       7.28879214       2.27875956      16.81088151       0.00010835       0.00003971      -0.00011588
Li       9.72144925       6.41184225      18.19660883       0.00004961      -0.00022845       0.00018434
Li       9.72245429       3.43508770      19.29050011      -0.00003344      -0.00007529       0.00047175
Li       7.28170265       6.54294222      12.71979232      -0.00004886       0.00022916      -0.00018419
Li       7.28534312       3.38895939      14.10550969      -0.00010838      -0.00004036       0.00011759
Li       9.71623428       7.13578422      15.32412458      -0.00000801       0.00005051      -0.00011100
Li       9.71757603       4.07288711      16.25622314       0.00002885      -0.00002592       0.00017041
Li       9.71894630       0.81914328      17.68786240       0.00008385       0.00010601      -0.00004000
Li       7.29348173       4.72194897      18.17565889       0.00001975      -0.00021516       0.00036018
Li       7.29510035       1.61958977      19.70762754      -0.00001539      -0.00009057      -0.00030236
Li       9.70853802       6.22584584      10.62241576       0.00001010      -0.00035607      -0.00028827
Li       9.70973156       2.23265696      11.62592205       0.00003297       0.00007389      -0.00047466
