20
Lattice="6.87031246 0.0 0.0 -1.71757811 5.43145605 0.0 0.0 0.0 32.58875004" Properties=species:S:1:pos:R:3:forces:R:3 energy=-4091.57192474167 free_energy=-4091.57192474167 pbc="T T T"
Li       1.71763933       2.24660473      12.33456042      -0.00006059      -0.00042037       0.00013098
Li      -0.00038964       4.31937553      13.71279902      -0.00002613      -0.00025957       0.00017201
Li       0.00069265       1.15860456      14.48390863      -0.00002896      -0.00004368       0.00030688
Li       1.71748675       3.19504473      15.88224758      -0.00001510      -0.00020755       0.00002861
Li       1.71767036       0.06383049      16.70650502       0.00001454       0.00020800      -0.00002824
Li      -0.00069232       2.10027237      18.10484342       0.00002950       0.00004383      -0.00030635
Li       1.71796705       4.37095728      18.87595605       0.00002720       0.00025831      -0.00017540
Li       1.71751568       1.01227073      20.25419117       0.00006121       0.00042114      -0.00012972
Li       0.00174715       3.47377541      21.09325409      -0.00005137       0.00029047      -0.00040637
Li       3.43340871      -0.21490081      11.49549822       0.00005135      -0.00029005       0.00040762
Li       5.15279609       2.24660422      12.33456116      -0.00006077      -0.00042071       0.00013018
Li       3.43476770       4.31937619      13.71279836      -0.00002751      -0.00026024       0.00017238
Li       3.43584878       1.15860472      14.48390831      -0.00002972      -0.00004438       0.00030666
Li       5.15264217       3.19504430      15.88224770      -0.00001516      -0.00020706       0.00002906
Li       5.15282636       0.06383159      16.70650485       0.00001493       0.00020703      -0.00002782
Li       3.43446315       2.10027159      18.10484401       0.00002928       0.00004487      -0.00030652
Li       5.15312330       4.37095694      18.87595587       0.00002646       0.00025848      -0.00017547
Li       5.15267233       1.01227154      20.25419010       0.00006112       0.00042046      -0.00012917
Li       3.43690320       3.47377564      21.09325453      -0.00005126       0.00029070      -0.00040675
Li       6.86856570      -0.21490156      11.49549778       0.00005099      -0.00028968       0.00040741
